src/simulation/_old/MT_Power_seq_kVA.txt

SYMMETRICAL COMPONENT POWERS BY CIRCUIT ELEMENT (first 3 phases)                                     Excess Power

Element              Term    P1(kW)   Q1(kvar)       P2         Q2      P0      Q0       P_Norm      Q_Norm     P_Emerg    Q_Emerg

"Vsource.SOURCE"      1      -60.2      -13.0       -0.0       -0.0    -0.0     0.0
"Vsource.SOURCE"      2        0.0        0.0        0.0        0.0     0.0     0.0
"Transformer.TRAFO"   1       60.2       13.0        0.0        0.0     0.0    -0.0        0.0        0.0        0.0        0.0
"Transformer.TRAFO"   2      -60.0       -9.7        0.0        0.0     0.0     0.0
"Reactor.TRAFO_R"     1        0.0        0.0        0.0        0.0     0.0     0.0        0.0        0.0        0.0        0.0
"Reactor.TRAFO_R"     2        0.0        0.0        0.0        0.0     0.0     0.0
"Line.P1_P2"          1       24.4        3.1       -0.0        0.0    -0.0     0.0        0.0        0.0        0.0        0.0
"Line.P1_P2"          2      -24.1       -2.9        0.0       -0.0     0.0    -0.0
"Line.P2_P3"          1       21.3        2.3        0.0        0.0    -0.0    -0.0        0.0        0.0        0.0        0.0
"Line.P2_P3"          2      -21.1       -2.2        0.0       -0.0     0.0     0.0
"Line.P3_P4"          1       17.2        2.1       -0.0        0.0    -0.0    -0.0        0.0        0.0        0.0        0.0
"Line.P3_P4"          2      -17.0       -2.0        0.0       -0.0     0.0     0.0
"Line.P4_P5"          1       15.3        1.4       -0.0        0.0    -0.0     0.0        0.0        0.0        0.0        0.0
"Line.P4_P5"          2      -15.1       -1.3        0.0       -0.0     0.0    -0.0
"Line.P5_P6"          1        7.6        0.1        0.0        0.0    -0.0     0.0        0.0        0.0        0.0        0.0
"Line.P5_P6"          2       -7.6       -0.1       -0.0       -0.0     0.0    -0.0
"Line.P6_P7"          1        4.2        0.0        0.0        0.0    -0.0    -0.0        0.0        0.0        0.0        0.0
"Line.P6_P7"          2       -4.2        0.0       -0.0       -0.0     0.0    -0.0
"Line.P1_P8"          1       32.4        5.4        0.0       -0.1     0.0    -0.0        0.0        0.0        0.0        0.0
"Line.P1_P8"          2      -31.8       -5.1        0.0        0.1     0.0     0.0
"Line.P8_P9"          1       11.5        2.7        0.0       -0.0     0.0    -0.0        0.0        0.0        0.0        0.0
"Line.P8_P9"          2      -11.3       -2.7       -0.0        0.0     0.0     0.0
"Line.P9_P10"         1        9.0        1.7        0.0        0.0    -0.0    -0.0        0.0        0.0        0.0        0.0
"Line.P9_P10"         2       -8.9       -1.7       -0.0       -0.0     0.0     0.0
"Line.P10_P11"        1        2.7        1.1        0.0       -0.0    -0.0    -0.0        0.0        0.0        0.0        0.0
"Line.P10_P11"        2       -2.7       -1.1       -0.0        0.0     0.0     0.0
"Line.P8_P12"         1       15.4        1.7       -0.0       -0.1    -0.0     0.0        0.0        0.0        0.0        0.0
"Line.P8_P12"         2      -15.3       -1.6        0.1        0.1     0.0    -0.0
"Line.P12_P13"        1        8.8        1.6       -0.0       -0.0    -0.0     0.0        0.0        0.0        0.0        0.0
"Line.P12_P13"        2       -8.7       -1.5        0.1        0.0     0.0     0.0
"Line.P13_P14"        1        6.5        0.7       -0.0       -0.0    -0.0    -0.0        0.0        0.0        0.0        0.0
"Line.P13_P14"        2       -6.5       -0.7        0.0        0.0     0.0     0.0
"Line.P14_P15"        1        1.7        0.7       -0.0       -0.0    -0.0    -0.0        0.0        0.0        0.0        0.0
"Line.P14_P15"        2       -1.7       -0.7        0.0        0.0     0.0     0.0
"Load.P1_1"           1        0.0        0.0        0.0        0.0     0.0     0.0
"Load.P1_2"           1        1.8        0.8        0.0        0.0     0.0    -0.0
"Load.P2_2"           1        0.0        0.0        0.0        0.0     0.0     0.0
"Load.P2_3"           1        0.0        0.0        0.0        0.0     0.0     0.0
"Load.P3_2"           1        0.0        0.0        0.0        0.0     0.0     0.0
"Load.P4_1"           1        0.0        0.0        0.0        0.0     0.0     0.0
"Load.P4_2"           1        0.0        0.0        0.0        0.0     0.0     0.0
"Load.P5_2"           1        2.7        1.2        0.0        0.0     0.0     0.0
"Load.P6_2"           1        0.0        0.0        0.0        0.0     0.0     0.0
"Load.P8_2"           1        0.0        0.0        0.0        0.0     0.0     0.0
"Load.P8_3"           1        0.0        0.0        0.0        0.0     0.0     0.0
"Load.P9_1"           1        0.0        0.0        0.0        0.0     0.0     0.0
"Load.P9_2"           1        0.0        0.0        0.0        0.0     0.0     0.0
"Load.P10_2"          1        0.0        0.0        0.0        0.0     0.0     0.0
"Load.P11_1"          1        0.0        0.0        0.0        0.0     0.0     0.0
"Load.P11_2"          1        0.0        0.0        0.0        0.0     0.0     0.0
"Load.P13_1"          1        0.0        0.0        0.0        0.0     0.0     0.0
"Load.P13_2"          1        0.0        0.0        0.0        0.0     0.0     0.0
"Load.P15_1"          1        0.0        0.0        0.0        0.0     0.0     0.0
"Load.P15_2"          1        0.0        0.0        0.0        0.0     0.0     0.0
"Load.P2_1"           1        0.0        0.0        0.0        0.0     0.0     0.0
"Load.P3_1"           1        3.5        0.0        0.0        0.0     0.0    -0.0
"Load.P5_1"           1        0.0        0.0        0.0        0.0     0.0     0.0
"Load.P6_1"           1        0.0        0.0        0.0        0.0     0.0     0.0
"Load.P7_1"           1        4.0        0.0       -0.0       -0.0     0.0     0.0
"Load.P8_1"           1        0.0        0.0        0.0        0.0     0.0     0.0
"Load.P10_1"          1        4.6        0.0       -0.0       -0.0    -0.0     0.0
"Load.P12_1"          1        0.0        0.0        0.0        0.0     0.0     0.0
"Load.P12_2"          1        0.0        0.0        0.0        0.0     0.0     0.0
"Load.P14_1"          1        4.6        0.0       -0.0       -0.0    -0.0    -0.0
"Load.P1_IP"          1        0.0        0.0        0.0        0.0     0.0     0.0
"Load.P2_IP"          1        0.0        0.0        0.0        0.0     0.0     0.0
"Load.P3_IP"          1        0.0        0.0        0.0        0.0     0.0     0.0
"Load.P4_IP"          1        0.0        0.0        0.0        0.0     0.0     0.0
"Load.P5_IP"          1        0.0        0.0        0.0        0.0     0.0     0.0
"Load.P6_IP"          1        0.0        0.0        0.0        0.0     0.0     0.0
"Load.P7_IP"          1        0.0        0.0        0.0        0.0     0.0     0.0
"Load.P8_IP"          1        0.0        0.0        0.0        0.0     0.0     0.0
"Load.P9_IP"          1        0.0        0.0        0.0        0.0     0.0     0.0
"Load.P10_IP"         1        0.0        0.0        0.0        0.0     0.0     0.0
"Load.P11_IP"         1        0.0        0.0        0.0        0.0     0.0     0.0
"Load.P12_IP"         1        0.0        0.0        0.0        0.0     0.0     0.0
"Load.P13_IP"         1        0.0        0.0        0.0        0.0     0.0     0.0
"Load.P14_IP"         1        0.0        0.0        0.0        0.0     0.0     0.0
"Load.P15_IP"         1        0.0        0.0        0.0        0.0     0.0     0.0

Total Circuit Losses =    2.4 +j    4.1
